
---------- Begin Simulation Statistics ----------
simSeconds                                   0.001034                       # Number of seconds simulated (Second)
simTicks                                   1034466000                       # Number of ticks simulated (Tick)
finalTick                                  1034466000                       # Number of ticks from beginning of simulation (restored from checkpoints and never reset) (Tick)
simFreq                                  1000000000000                       # The number of ticks per simulated second ((Tick/Second))
hostSeconds                                      3.87                       # Real time elapsed on the host (Second)
hostTickRate                                267558624                       # The number of ticks simulated per host second (ticks/s) ((Tick/Second))
hostMemory                                    8723196                       # Number of bytes of host memory used (Byte)
simInsts                                      1000000                       # Number of instructions simulated (Count)
simOps                                        1111482                       # Number of ops (including micro ops) simulated (Count)
hostInstRate                                   258606                       # Simulator instruction rate (inst/s) ((Count/Second))
hostOpRate                                     287435                       # Simulator op (including micro ops) rate (op/s) ((Count/Second))
system.clk_domain.clock                          1000                       # Clock period in ticks (Tick)
system.cpu.numCycles                          2068932                       # Number of cpu cycles simulated (Cycle)
system.cpu.numWorkItemsStarted                      0                       # Number of work items this cpu started (Count)
system.cpu.numWorkItemsCompleted                    0                       # Number of work items this cpu completed (Count)
system.cpu.numInsts                           1000000                       # Number of instructions committed (Count)
system.cpu.numOps                             1111482                       # Number of ops (including micro ops) committed (Count)
system.cpu.numDiscardedOps                      10979                       # Number of ops (including micro ops) which were discarded before commit (Count)
system.cpu.numFetchSuspends                         0                       # Number of times Execute suspended instruction fetching (Count)
system.cpu.cpi                               2.068932                       # CPI: cycles per instruction ((Cycle/Count))
system.cpu.ipc                               0.483341                       # IPC: instructions per cycle ((Count/Cycle))
system.cpu.committedInstType_0::No_OpClass          184      0.02%      0.02% # Class of committed instruction (Count)
system.cpu.committedInstType_0::IntAlu         795563     71.58%     71.59% # Class of committed instruction (Count)
system.cpu.committedInstType_0::IntMult          3687      0.33%     71.93% # Class of committed instruction (Count)
system.cpu.committedInstType_0::IntDiv            910      0.08%     72.01% # Class of committed instruction (Count)
system.cpu.committedInstType_0::FloatAdd          437      0.04%     72.05% # Class of committed instruction (Count)
system.cpu.committedInstType_0::FloatCmp            6      0.00%     72.05% # Class of committed instruction (Count)
system.cpu.committedInstType_0::FloatCvt            0      0.00%     72.05% # Class of committed instruction (Count)
system.cpu.committedInstType_0::FloatMult           15      0.00%     72.05% # Class of committed instruction (Count)
system.cpu.committedInstType_0::FloatMultAcc           21      0.00%     72.05% # Class of committed instruction (Count)
system.cpu.committedInstType_0::FloatDiv            9      0.00%     72.05% # Class of committed instruction (Count)
system.cpu.committedInstType_0::FloatMisc         1625      0.15%     72.20% # Class of committed instruction (Count)
system.cpu.committedInstType_0::FloatSqrt            0      0.00%     72.20% # Class of committed instruction (Count)
system.cpu.committedInstType_0::SimdAdd           429      0.04%     72.24% # Class of committed instruction (Count)
system.cpu.committedInstType_0::SimdAddAcc            0      0.00%     72.24% # Class of committed instruction (Count)
system.cpu.committedInstType_0::SimdAlu           645      0.06%     72.29% # Class of committed instruction (Count)
system.cpu.committedInstType_0::SimdCmp           594      0.05%     72.35% # Class of committed instruction (Count)
system.cpu.committedInstType_0::SimdCvt             0      0.00%     72.35% # Class of committed instruction (Count)
system.cpu.committedInstType_0::SimdMisc          524      0.05%     72.39% # Class of committed instruction (Count)
system.cpu.committedInstType_0::SimdMult            0      0.00%     72.39% # Class of committed instruction (Count)
system.cpu.committedInstType_0::SimdMultAcc            0      0.00%     72.39% # Class of committed instruction (Count)
system.cpu.committedInstType_0::SimdShift            0      0.00%     72.39% # Class of committed instruction (Count)
system.cpu.committedInstType_0::SimdShiftAcc            0      0.00%     72.39% # Class of committed instruction (Count)
system.cpu.committedInstType_0::SimdDiv             0      0.00%     72.39% # Class of committed instruction (Count)
system.cpu.committedInstType_0::SimdSqrt            0      0.00%     72.39% # Class of committed instruction (Count)
system.cpu.committedInstType_0::SimdFloatAdd            0      0.00%     72.39% # Class of committed instruction (Count)
system.cpu.committedInstType_0::SimdFloatAlu            0      0.00%     72.39% # Class of committed instruction (Count)
system.cpu.committedInstType_0::SimdFloatCmp            0      0.00%     72.39% # Class of committed instruction (Count)
system.cpu.committedInstType_0::SimdFloatCvt            0      0.00%     72.39% # Class of committed instruction (Count)
system.cpu.committedInstType_0::SimdFloatDiv            0      0.00%     72.39% # Class of committed instruction (Count)
system.cpu.committedInstType_0::SimdFloatMisc            0      0.00%     72.39% # Class of committed instruction (Count)
system.cpu.committedInstType_0::SimdFloatMult            0      0.00%     72.39% # Class of committed instruction (Count)
system.cpu.committedInstType_0::SimdFloatMultAcc            0      0.00%     72.39% # Class of committed instruction (Count)
system.cpu.committedInstType_0::SimdFloatSqrt            0      0.00%     72.39% # Class of committed instruction (Count)
system.cpu.committedInstType_0::SimdReduceAdd            0      0.00%     72.39% # Class of committed instruction (Count)
system.cpu.committedInstType_0::SimdReduceAlu            0      0.00%     72.39% # Class of committed instruction (Count)
system.cpu.committedInstType_0::SimdReduceCmp            0      0.00%     72.39% # Class of committed instruction (Count)
system.cpu.committedInstType_0::SimdFloatReduceAdd            0      0.00%     72.39% # Class of committed instruction (Count)
system.cpu.committedInstType_0::SimdFloatReduceCmp            0      0.00%     72.39% # Class of committed instruction (Count)
system.cpu.committedInstType_0::SimdAes             0      0.00%     72.39% # Class of committed instruction (Count)
system.cpu.committedInstType_0::SimdAesMix            0      0.00%     72.39% # Class of committed instruction (Count)
system.cpu.committedInstType_0::SimdSha1Hash            0      0.00%     72.39% # Class of committed instruction (Count)
system.cpu.committedInstType_0::SimdSha1Hash2            0      0.00%     72.39% # Class of committed instruction (Count)
system.cpu.committedInstType_0::SimdSha256Hash            0      0.00%     72.39% # Class of committed instruction (Count)
system.cpu.committedInstType_0::SimdSha256Hash2            0      0.00%     72.39% # Class of committed instruction (Count)
system.cpu.committedInstType_0::SimdShaSigma2            0      0.00%     72.39% # Class of committed instruction (Count)
system.cpu.committedInstType_0::SimdShaSigma3            0      0.00%     72.39% # Class of committed instruction (Count)
system.cpu.committedInstType_0::SimdPredAlu            0      0.00%     72.39% # Class of committed instruction (Count)
system.cpu.committedInstType_0::MemRead        176568     15.89%     88.28% # Class of committed instruction (Count)
system.cpu.committedInstType_0::MemWrite       130265     11.72%    100.00% # Class of committed instruction (Count)
system.cpu.committedInstType_0::FloatMemRead            0      0.00%    100.00% # Class of committed instruction (Count)
system.cpu.committedInstType_0::FloatMemWrite            0      0.00%    100.00% # Class of committed instruction (Count)
system.cpu.committedInstType_0::IprAccess            0      0.00%    100.00% # Class of committed instruction (Count)
system.cpu.committedInstType_0::InstPrefetch            0      0.00%    100.00% # Class of committed instruction (Count)
system.cpu.committedInstType_0::total         1111482                       # Class of committed instruction (Count)
system.cpu.branchPred.lookups                  224206                       # Number of BP lookups (Count)
system.cpu.branchPred.condPredicted            173998                       # Number of conditional branches predicted (Count)
system.cpu.branchPred.condIncorrect              4223                       # Number of conditional branches incorrect (Count)
system.cpu.branchPred.BTBLookups               106801                       # Number of BTB lookups (Count)
system.cpu.branchPred.BTBHits                  104705                       # Number of BTB hits (Count)
system.cpu.branchPred.BTBHitRatio            0.980375                       # BTB Hit Ratio (Ratio)
system.cpu.branchPred.RASUsed                   11407                       # Number of times the RAS was used to get a target. (Count)
system.cpu.branchPred.RASIncorrect                 11                       # Number of incorrect RAS predictions. (Count)
system.cpu.branchPred.indirectLookups            3037                       # Number of indirect predictor lookups. (Count)
system.cpu.branchPred.indirectHits               2763                       # Number of indirect target hits. (Count)
system.cpu.branchPred.indirectMisses              274                       # Number of indirect misses. (Count)
system.cpu.branchPred.indirectMispredicted          108                       # Number of mispredicted indirect branches. (Count)
system.cpu.dcache.demandHits::cpu.data         304412                       # number of demand (read+write) hits (Count)
system.cpu.dcache.demandHits::total            304412                       # number of demand (read+write) hits (Count)
system.cpu.dcache.overallHits::cpu.data        305658                       # number of overall hits (Count)
system.cpu.dcache.overallHits::total           305658                       # number of overall hits (Count)
system.cpu.dcache.demandMisses::cpu.data         1005                       # number of demand (read+write) misses (Count)
system.cpu.dcache.demandMisses::total            1005                       # number of demand (read+write) misses (Count)
system.cpu.dcache.overallMisses::cpu.data         1008                       # number of overall misses (Count)
system.cpu.dcache.overallMisses::total           1008                       # number of overall misses (Count)
system.cpu.dcache.demandMissLatency::cpu.data     84346500                       # number of demand (read+write) miss ticks (Tick)
system.cpu.dcache.demandMissLatency::total     84346500                       # number of demand (read+write) miss ticks (Tick)
system.cpu.dcache.overallMissLatency::cpu.data     84346500                       # number of overall miss ticks (Tick)
system.cpu.dcache.overallMissLatency::total     84346500                       # number of overall miss ticks (Tick)
system.cpu.dcache.demandAccesses::cpu.data       305417                       # number of demand (read+write) accesses (Count)
system.cpu.dcache.demandAccesses::total        305417                       # number of demand (read+write) accesses (Count)
system.cpu.dcache.overallAccesses::cpu.data       306666                       # number of overall (read+write) accesses (Count)
system.cpu.dcache.overallAccesses::total       306666                       # number of overall (read+write) accesses (Count)
system.cpu.dcache.demandMissRate::cpu.data     0.003291                       # miss rate for demand accesses (Ratio)
system.cpu.dcache.demandMissRate::total      0.003291                       # miss rate for demand accesses (Ratio)
system.cpu.dcache.overallMissRate::cpu.data     0.003287                       # miss rate for overall accesses (Ratio)
system.cpu.dcache.overallMissRate::total     0.003287                       # miss rate for overall accesses (Ratio)
system.cpu.dcache.demandAvgMissLatency::cpu.data 83926.865672                       # average overall miss latency in ticks ((Tick/Count))
system.cpu.dcache.demandAvgMissLatency::total 83926.865672                       # average overall miss latency in ticks ((Tick/Count))
system.cpu.dcache.overallAvgMissLatency::cpu.data 83677.083333                       # average overall miss latency ((Tick/Count))
system.cpu.dcache.overallAvgMissLatency::total 83677.083333                       # average overall miss latency ((Tick/Count))
system.cpu.dcache.blockedCycles::no_mshrs            0                       # number of cycles access was blocked (Cycle)
system.cpu.dcache.blockedCycles::no_targets            0                       # number of cycles access was blocked (Cycle)
system.cpu.dcache.blockedCauses::no_mshrs            0                       # number of times access was blocked (Count)
system.cpu.dcache.blockedCauses::no_targets            0                       # number of times access was blocked (Count)
system.cpu.dcache.avgBlocked::no_mshrs            nan                       # average number of cycles each access was blocked ((Cycle/Count))
system.cpu.dcache.avgBlocked::no_targets          nan                       # average number of cycles each access was blocked ((Cycle/Count))
system.cpu.dcache.writebacks::writebacks           43                       # number of writebacks (Count)
system.cpu.dcache.writebacks::total                43                       # number of writebacks (Count)
system.cpu.dcache.demandMshrHits::cpu.data          373                       # number of demand (read+write) MSHR hits (Count)
system.cpu.dcache.demandMshrHits::total           373                       # number of demand (read+write) MSHR hits (Count)
system.cpu.dcache.overallMshrHits::cpu.data          373                       # number of overall MSHR hits (Count)
system.cpu.dcache.overallMshrHits::total          373                       # number of overall MSHR hits (Count)
system.cpu.dcache.demandMshrMisses::cpu.data          632                       # number of demand (read+write) MSHR misses (Count)
system.cpu.dcache.demandMshrMisses::total          632                       # number of demand (read+write) MSHR misses (Count)
system.cpu.dcache.overallMshrMisses::cpu.data          635                       # number of overall MSHR misses (Count)
system.cpu.dcache.overallMshrMisses::total          635                       # number of overall MSHR misses (Count)
system.cpu.dcache.demandMshrMissLatency::cpu.data     52917500                       # number of demand (read+write) MSHR miss ticks (Tick)
system.cpu.dcache.demandMshrMissLatency::total     52917500                       # number of demand (read+write) MSHR miss ticks (Tick)
system.cpu.dcache.overallMshrMissLatency::cpu.data     53149500                       # number of overall MSHR miss ticks (Tick)
system.cpu.dcache.overallMshrMissLatency::total     53149500                       # number of overall MSHR miss ticks (Tick)
system.cpu.dcache.demandMshrMissRate::cpu.data     0.002069                       # mshr miss ratio for demand accesses (Ratio)
system.cpu.dcache.demandMshrMissRate::total     0.002069                       # mshr miss ratio for demand accesses (Ratio)
system.cpu.dcache.overallMshrMissRate::cpu.data     0.002071                       # mshr miss ratio for overall accesses (Ratio)
system.cpu.dcache.overallMshrMissRate::total     0.002071                       # mshr miss ratio for overall accesses (Ratio)
system.cpu.dcache.demandAvgMshrMissLatency::cpu.data 83730.221519                       # average overall mshr miss latency ((Tick/Count))
system.cpu.dcache.demandAvgMshrMissLatency::total 83730.221519                       # average overall mshr miss latency ((Tick/Count))
system.cpu.dcache.overallAvgMshrMissLatency::cpu.data        83700                       # average overall mshr miss latency ((Tick/Count))
system.cpu.dcache.overallAvgMshrMissLatency::total        83700                       # average overall mshr miss latency ((Tick/Count))
system.cpu.dcache.replacements                     58                       # number of replacements (Count)
system.cpu.dcache.LoadLockedReq.hits::cpu.data          473                       # number of LoadLockedReq hits (Count)
system.cpu.dcache.LoadLockedReq.hits::total          473                       # number of LoadLockedReq hits (Count)
system.cpu.dcache.LoadLockedReq.accesses::cpu.data          473                       # number of LoadLockedReq accesses(hits+misses) (Count)
system.cpu.dcache.LoadLockedReq.accesses::total          473                       # number of LoadLockedReq accesses(hits+misses) (Count)
system.cpu.dcache.ReadReq.hits::cpu.data       175432                       # number of ReadReq hits (Count)
system.cpu.dcache.ReadReq.hits::total          175432                       # number of ReadReq hits (Count)
system.cpu.dcache.ReadReq.misses::cpu.data          254                       # number of ReadReq misses (Count)
system.cpu.dcache.ReadReq.misses::total           254                       # number of ReadReq misses (Count)
system.cpu.dcache.ReadReq.missLatency::cpu.data     22032000                       # number of ReadReq miss ticks (Tick)
system.cpu.dcache.ReadReq.missLatency::total     22032000                       # number of ReadReq miss ticks (Tick)
system.cpu.dcache.ReadReq.accesses::cpu.data       175686                       # number of ReadReq accesses(hits+misses) (Count)
system.cpu.dcache.ReadReq.accesses::total       175686                       # number of ReadReq accesses(hits+misses) (Count)
system.cpu.dcache.ReadReq.missRate::cpu.data     0.001446                       # miss rate for ReadReq accesses (Ratio)
system.cpu.dcache.ReadReq.missRate::total     0.001446                       # miss rate for ReadReq accesses (Ratio)
system.cpu.dcache.ReadReq.avgMissLatency::cpu.data 86740.157480                       # average ReadReq miss latency ((Tick/Count))
system.cpu.dcache.ReadReq.avgMissLatency::total 86740.157480                       # average ReadReq miss latency ((Tick/Count))
system.cpu.dcache.ReadReq.mshrHits::cpu.data           20                       # number of ReadReq MSHR hits (Count)
system.cpu.dcache.ReadReq.mshrHits::total           20                       # number of ReadReq MSHR hits (Count)
system.cpu.dcache.ReadReq.mshrMisses::cpu.data          234                       # number of ReadReq MSHR misses (Count)
system.cpu.dcache.ReadReq.mshrMisses::total          234                       # number of ReadReq MSHR misses (Count)
system.cpu.dcache.ReadReq.mshrMissLatency::cpu.data     20189000                       # number of ReadReq MSHR miss ticks (Tick)
system.cpu.dcache.ReadReq.mshrMissLatency::total     20189000                       # number of ReadReq MSHR miss ticks (Tick)
system.cpu.dcache.ReadReq.mshrMissRate::cpu.data     0.001332                       # mshr miss rate for ReadReq accesses (Ratio)
system.cpu.dcache.ReadReq.mshrMissRate::total     0.001332                       # mshr miss rate for ReadReq accesses (Ratio)
system.cpu.dcache.ReadReq.avgMshrMissLatency::cpu.data 86277.777778                       # average ReadReq mshr miss latency ((Tick/Count))
system.cpu.dcache.ReadReq.avgMshrMissLatency::total 86277.777778                       # average ReadReq mshr miss latency ((Tick/Count))
system.cpu.dcache.SoftPFReq.hits::cpu.data         1246                       # number of SoftPFReq hits (Count)
system.cpu.dcache.SoftPFReq.hits::total          1246                       # number of SoftPFReq hits (Count)
system.cpu.dcache.SoftPFReq.misses::cpu.data            3                       # number of SoftPFReq misses (Count)
system.cpu.dcache.SoftPFReq.misses::total            3                       # number of SoftPFReq misses (Count)
system.cpu.dcache.SoftPFReq.accesses::cpu.data         1249                       # number of SoftPFReq accesses(hits+misses) (Count)
system.cpu.dcache.SoftPFReq.accesses::total         1249                       # number of SoftPFReq accesses(hits+misses) (Count)
system.cpu.dcache.SoftPFReq.missRate::cpu.data     0.002402                       # miss rate for SoftPFReq accesses (Ratio)
system.cpu.dcache.SoftPFReq.missRate::total     0.002402                       # miss rate for SoftPFReq accesses (Ratio)
system.cpu.dcache.SoftPFReq.mshrMisses::cpu.data            3                       # number of SoftPFReq MSHR misses (Count)
system.cpu.dcache.SoftPFReq.mshrMisses::total            3                       # number of SoftPFReq MSHR misses (Count)
system.cpu.dcache.SoftPFReq.mshrMissLatency::cpu.data       232000                       # number of SoftPFReq MSHR miss ticks (Tick)
system.cpu.dcache.SoftPFReq.mshrMissLatency::total       232000                       # number of SoftPFReq MSHR miss ticks (Tick)
system.cpu.dcache.SoftPFReq.mshrMissRate::cpu.data     0.002402                       # mshr miss rate for SoftPFReq accesses (Ratio)
system.cpu.dcache.SoftPFReq.mshrMissRate::total     0.002402                       # mshr miss rate for SoftPFReq accesses (Ratio)
system.cpu.dcache.SoftPFReq.avgMshrMissLatency::cpu.data 77333.333333                       # average SoftPFReq mshr miss latency ((Tick/Count))
system.cpu.dcache.SoftPFReq.avgMshrMissLatency::total 77333.333333                       # average SoftPFReq mshr miss latency ((Tick/Count))
system.cpu.dcache.StoreCondReq.hits::cpu.data          473                       # number of StoreCondReq hits (Count)
system.cpu.dcache.StoreCondReq.hits::total          473                       # number of StoreCondReq hits (Count)
system.cpu.dcache.StoreCondReq.accesses::cpu.data          473                       # number of StoreCondReq accesses(hits+misses) (Count)
system.cpu.dcache.StoreCondReq.accesses::total          473                       # number of StoreCondReq accesses(hits+misses) (Count)
system.cpu.dcache.WriteLineReq.hits::cpu.data            7                       # number of WriteLineReq hits (Count)
system.cpu.dcache.WriteLineReq.hits::total            7                       # number of WriteLineReq hits (Count)
system.cpu.dcache.WriteLineReq.misses::cpu.data            8                       # number of WriteLineReq misses (Count)
system.cpu.dcache.WriteLineReq.misses::total            8                       # number of WriteLineReq misses (Count)
system.cpu.dcache.WriteLineReq.missLatency::cpu.data       251000                       # number of WriteLineReq miss ticks (Tick)
system.cpu.dcache.WriteLineReq.missLatency::total       251000                       # number of WriteLineReq miss ticks (Tick)
system.cpu.dcache.WriteLineReq.accesses::cpu.data           15                       # number of WriteLineReq accesses(hits+misses) (Count)
system.cpu.dcache.WriteLineReq.accesses::total           15                       # number of WriteLineReq accesses(hits+misses) (Count)
system.cpu.dcache.WriteLineReq.missRate::cpu.data     0.533333                       # miss rate for WriteLineReq accesses (Ratio)
system.cpu.dcache.WriteLineReq.missRate::total     0.533333                       # miss rate for WriteLineReq accesses (Ratio)
system.cpu.dcache.WriteLineReq.avgMissLatency::cpu.data        31375                       # average WriteLineReq miss latency ((Tick/Count))
system.cpu.dcache.WriteLineReq.avgMissLatency::total        31375                       # average WriteLineReq miss latency ((Tick/Count))
system.cpu.dcache.WriteLineReq.mshrMisses::cpu.data            8                       # number of WriteLineReq MSHR misses (Count)
system.cpu.dcache.WriteLineReq.mshrMisses::total            8                       # number of WriteLineReq MSHR misses (Count)
system.cpu.dcache.WriteLineReq.mshrMissLatency::cpu.data       243000                       # number of WriteLineReq MSHR miss ticks (Tick)
system.cpu.dcache.WriteLineReq.mshrMissLatency::total       243000                       # number of WriteLineReq MSHR miss ticks (Tick)
system.cpu.dcache.WriteLineReq.mshrMissRate::cpu.data     0.533333                       # mshr miss rate for WriteLineReq accesses (Ratio)
system.cpu.dcache.WriteLineReq.mshrMissRate::total     0.533333                       # mshr miss rate for WriteLineReq accesses (Ratio)
system.cpu.dcache.WriteLineReq.avgMshrMissLatency::cpu.data        30375                       # average WriteLineReq mshr miss latency ((Tick/Count))
system.cpu.dcache.WriteLineReq.avgMshrMissLatency::total        30375                       # average WriteLineReq mshr miss latency ((Tick/Count))
system.cpu.dcache.WriteReq.hits::cpu.data       128973                       # number of WriteReq hits (Count)
system.cpu.dcache.WriteReq.hits::total         128973                       # number of WriteReq hits (Count)
system.cpu.dcache.WriteReq.misses::cpu.data          743                       # number of WriteReq misses (Count)
system.cpu.dcache.WriteReq.misses::total          743                       # number of WriteReq misses (Count)
system.cpu.dcache.WriteReq.missLatency::cpu.data     62063500                       # number of WriteReq miss ticks (Tick)
system.cpu.dcache.WriteReq.missLatency::total     62063500                       # number of WriteReq miss ticks (Tick)
system.cpu.dcache.WriteReq.accesses::cpu.data       129716                       # number of WriteReq accesses(hits+misses) (Count)
system.cpu.dcache.WriteReq.accesses::total       129716                       # number of WriteReq accesses(hits+misses) (Count)
system.cpu.dcache.WriteReq.missRate::cpu.data     0.005728                       # miss rate for WriteReq accesses (Ratio)
system.cpu.dcache.WriteReq.missRate::total     0.005728                       # miss rate for WriteReq accesses (Ratio)
system.cpu.dcache.WriteReq.avgMissLatency::cpu.data 83530.955585                       # average WriteReq miss latency ((Tick/Count))
system.cpu.dcache.WriteReq.avgMissLatency::total 83530.955585                       # average WriteReq miss latency ((Tick/Count))
system.cpu.dcache.WriteReq.mshrHits::cpu.data          353                       # number of WriteReq MSHR hits (Count)
system.cpu.dcache.WriteReq.mshrHits::total          353                       # number of WriteReq MSHR hits (Count)
system.cpu.dcache.WriteReq.mshrMisses::cpu.data          390                       # number of WriteReq MSHR misses (Count)
system.cpu.dcache.WriteReq.mshrMisses::total          390                       # number of WriteReq MSHR misses (Count)
system.cpu.dcache.WriteReq.mshrMissLatency::cpu.data     32485500                       # number of WriteReq MSHR miss ticks (Tick)
system.cpu.dcache.WriteReq.mshrMissLatency::total     32485500                       # number of WriteReq MSHR miss ticks (Tick)
system.cpu.dcache.WriteReq.mshrMissRate::cpu.data     0.003007                       # mshr miss rate for WriteReq accesses (Ratio)
system.cpu.dcache.WriteReq.mshrMissRate::total     0.003007                       # mshr miss rate for WriteReq accesses (Ratio)
system.cpu.dcache.WriteReq.avgMshrMissLatency::cpu.data 83296.153846                       # average WriteReq mshr miss latency ((Tick/Count))
system.cpu.dcache.WriteReq.avgMshrMissLatency::total 83296.153846                       # average WriteReq mshr miss latency ((Tick/Count))
system.cpu.dcache.power_state.pwrStateResidencyTicks::UNDEFINED   1034466000                       # Cumulative time (in ticks) in various power states (Tick)
system.cpu.dcache.tags.tagsInUse           421.222283                       # Average ticks per tags in use ((Tick/Count))
system.cpu.dcache.tags.totalRefs               307239                       # Total number of references to valid blocks. (Count)
system.cpu.dcache.tags.sampledRefs                635                       # Sample count of references to valid blocks. (Count)
system.cpu.dcache.tags.avgRefs             483.840945                       # Average number of references to valid blocks. ((Count/Count))
system.cpu.dcache.tags.warmupTick              176500                       # The tick when the warmup percentage was hit. (Tick)
system.cpu.dcache.tags.occupancies::cpu.data   421.222283                       # Average occupied blocks per tick, per requestor ((Count/Tick))
system.cpu.dcache.tags.avgOccs::cpu.data     0.411350                       # Average percentage of cache occupancy ((Ratio/Tick))
system.cpu.dcache.tags.avgOccs::total        0.411350                       # Average percentage of cache occupancy ((Ratio/Tick))
system.cpu.dcache.tags.occupanciesTaskId::1024          577                       # Occupied blocks per task id (Count)
system.cpu.dcache.tags.ageTaskId_1024::0            3                       # Occupied blocks per task id, per block age (Count)
system.cpu.dcache.tags.ageTaskId_1024::1           28                       # Occupied blocks per task id, per block age (Count)
system.cpu.dcache.tags.ageTaskId_1024::2          391                       # Occupied blocks per task id, per block age (Count)
system.cpu.dcache.tags.ageTaskId_1024::3          155                       # Occupied blocks per task id, per block age (Count)
system.cpu.dcache.tags.ratioOccsTaskId::1024     0.563477                       # Ratio of occupied blocks and all blocks, per task id (Ratio)
system.cpu.dcache.tags.tagAccesses             615859                       # Number of tag accesses (Count)
system.cpu.dcache.tags.dataAccesses            615859                       # Number of data accesses (Count)
system.cpu.dcache.tags.power_state.pwrStateResidencyTicks::UNDEFINED   1034466000                       # Cumulative time (in ticks) in various power states (Tick)
system.cpu.fetch2.intInstructions              614864                       # Number of integer instructions successfully decoded (Count)
system.cpu.fetch2.fpInstructions                    0                       # Number of floating point instructions successfully decoded (Count)
system.cpu.fetch2.vecInstructions                5033                       # Number of SIMD instructions successfully decoded (Count)
system.cpu.fetch2.loadInstructions             137753                       # Number of memory load instructions successfully decoded (Count)
system.cpu.fetch2.storeInstructions             68204                       # Number of memory store instructions successfully decoded (Count)
system.cpu.fetch2.amoInstructions                   0                       # Number of memory atomic instructions successfully decoded (Count)
system.cpu.icache.demandHits::cpu.inst         312847                       # number of demand (read+write) hits (Count)
system.cpu.icache.demandHits::total            312847                       # number of demand (read+write) hits (Count)
system.cpu.icache.overallHits::cpu.inst        312847                       # number of overall hits (Count)
system.cpu.icache.overallHits::total           312847                       # number of overall hits (Count)
system.cpu.icache.demandMisses::cpu.inst        28146                       # number of demand (read+write) misses (Count)
system.cpu.icache.demandMisses::total           28146                       # number of demand (read+write) misses (Count)
system.cpu.icache.overallMisses::cpu.inst        28146                       # number of overall misses (Count)
system.cpu.icache.overallMisses::total          28146                       # number of overall misses (Count)
system.cpu.icache.demandMissLatency::cpu.inst    421675000                       # number of demand (read+write) miss ticks (Tick)
system.cpu.icache.demandMissLatency::total    421675000                       # number of demand (read+write) miss ticks (Tick)
system.cpu.icache.overallMissLatency::cpu.inst    421675000                       # number of overall miss ticks (Tick)
system.cpu.icache.overallMissLatency::total    421675000                       # number of overall miss ticks (Tick)
system.cpu.icache.demandAccesses::cpu.inst       340993                       # number of demand (read+write) accesses (Count)
system.cpu.icache.demandAccesses::total        340993                       # number of demand (read+write) accesses (Count)
system.cpu.icache.overallAccesses::cpu.inst       340993                       # number of overall (read+write) accesses (Count)
system.cpu.icache.overallAccesses::total       340993                       # number of overall (read+write) accesses (Count)
system.cpu.icache.demandMissRate::cpu.inst     0.082541                       # miss rate for demand accesses (Ratio)
system.cpu.icache.demandMissRate::total      0.082541                       # miss rate for demand accesses (Ratio)
system.cpu.icache.overallMissRate::cpu.inst     0.082541                       # miss rate for overall accesses (Ratio)
system.cpu.icache.overallMissRate::total     0.082541                       # miss rate for overall accesses (Ratio)
system.cpu.icache.demandAvgMissLatency::cpu.inst 14981.702551                       # average overall miss latency in ticks ((Tick/Count))
system.cpu.icache.demandAvgMissLatency::total 14981.702551                       # average overall miss latency in ticks ((Tick/Count))
system.cpu.icache.overallAvgMissLatency::cpu.inst 14981.702551                       # average overall miss latency ((Tick/Count))
system.cpu.icache.overallAvgMissLatency::total 14981.702551                       # average overall miss latency ((Tick/Count))
system.cpu.icache.blockedCycles::no_mshrs            0                       # number of cycles access was blocked (Cycle)
system.cpu.icache.blockedCycles::no_targets            0                       # number of cycles access was blocked (Cycle)
system.cpu.icache.blockedCauses::no_mshrs            0                       # number of times access was blocked (Count)
system.cpu.icache.blockedCauses::no_targets            0                       # number of times access was blocked (Count)
system.cpu.icache.avgBlocked::no_mshrs            nan                       # average number of cycles each access was blocked ((Cycle/Count))
system.cpu.icache.avgBlocked::no_targets          nan                       # average number of cycles each access was blocked ((Cycle/Count))
system.cpu.icache.writebacks::writebacks        27890                       # number of writebacks (Count)
system.cpu.icache.writebacks::total             27890                       # number of writebacks (Count)
system.cpu.icache.demandMshrMisses::cpu.inst        28146                       # number of demand (read+write) MSHR misses (Count)
system.cpu.icache.demandMshrMisses::total        28146                       # number of demand (read+write) MSHR misses (Count)
system.cpu.icache.overallMshrMisses::cpu.inst        28146                       # number of overall MSHR misses (Count)
system.cpu.icache.overallMshrMisses::total        28146                       # number of overall MSHR misses (Count)
system.cpu.icache.demandMshrMissLatency::cpu.inst    393529000                       # number of demand (read+write) MSHR miss ticks (Tick)
system.cpu.icache.demandMshrMissLatency::total    393529000                       # number of demand (read+write) MSHR miss ticks (Tick)
system.cpu.icache.overallMshrMissLatency::cpu.inst    393529000                       # number of overall MSHR miss ticks (Tick)
system.cpu.icache.overallMshrMissLatency::total    393529000                       # number of overall MSHR miss ticks (Tick)
system.cpu.icache.demandMshrMissRate::cpu.inst     0.082541                       # mshr miss ratio for demand accesses (Ratio)
system.cpu.icache.demandMshrMissRate::total     0.082541                       # mshr miss ratio for demand accesses (Ratio)
system.cpu.icache.overallMshrMissRate::cpu.inst     0.082541                       # mshr miss ratio for overall accesses (Ratio)
system.cpu.icache.overallMshrMissRate::total     0.082541                       # mshr miss ratio for overall accesses (Ratio)
system.cpu.icache.demandAvgMshrMissLatency::cpu.inst 13981.702551                       # average overall mshr miss latency ((Tick/Count))
system.cpu.icache.demandAvgMshrMissLatency::total 13981.702551                       # average overall mshr miss latency ((Tick/Count))
system.cpu.icache.overallAvgMshrMissLatency::cpu.inst 13981.702551                       # average overall mshr miss latency ((Tick/Count))
system.cpu.icache.overallAvgMshrMissLatency::total 13981.702551                       # average overall mshr miss latency ((Tick/Count))
system.cpu.icache.replacements                  27890                       # number of replacements (Count)
system.cpu.icache.ReadReq.hits::cpu.inst       312847                       # number of ReadReq hits (Count)
system.cpu.icache.ReadReq.hits::total          312847                       # number of ReadReq hits (Count)
system.cpu.icache.ReadReq.misses::cpu.inst        28146                       # number of ReadReq misses (Count)
system.cpu.icache.ReadReq.misses::total         28146                       # number of ReadReq misses (Count)
system.cpu.icache.ReadReq.missLatency::cpu.inst    421675000                       # number of ReadReq miss ticks (Tick)
system.cpu.icache.ReadReq.missLatency::total    421675000                       # number of ReadReq miss ticks (Tick)
system.cpu.icache.ReadReq.accesses::cpu.inst       340993                       # number of ReadReq accesses(hits+misses) (Count)
system.cpu.icache.ReadReq.accesses::total       340993                       # number of ReadReq accesses(hits+misses) (Count)
system.cpu.icache.ReadReq.missRate::cpu.inst     0.082541                       # miss rate for ReadReq accesses (Ratio)
system.cpu.icache.ReadReq.missRate::total     0.082541                       # miss rate for ReadReq accesses (Ratio)
system.cpu.icache.ReadReq.avgMissLatency::cpu.inst 14981.702551                       # average ReadReq miss latency ((Tick/Count))
system.cpu.icache.ReadReq.avgMissLatency::total 14981.702551                       # average ReadReq miss latency ((Tick/Count))
system.cpu.icache.ReadReq.mshrMisses::cpu.inst        28146                       # number of ReadReq MSHR misses (Count)
system.cpu.icache.ReadReq.mshrMisses::total        28146                       # number of ReadReq MSHR misses (Count)
system.cpu.icache.ReadReq.mshrMissLatency::cpu.inst    393529000                       # number of ReadReq MSHR miss ticks (Tick)
system.cpu.icache.ReadReq.mshrMissLatency::total    393529000                       # number of ReadReq MSHR miss ticks (Tick)
system.cpu.icache.ReadReq.mshrMissRate::cpu.inst     0.082541                       # mshr miss rate for ReadReq accesses (Ratio)
system.cpu.icache.ReadReq.mshrMissRate::total     0.082541                       # mshr miss rate for ReadReq accesses (Ratio)
system.cpu.icache.ReadReq.avgMshrMissLatency::cpu.inst 13981.702551                       # average ReadReq mshr miss latency ((Tick/Count))
system.cpu.icache.ReadReq.avgMshrMissLatency::total 13981.702551                       # average ReadReq mshr miss latency ((Tick/Count))
system.cpu.icache.power_state.pwrStateResidencyTicks::UNDEFINED   1034466000                       # Cumulative time (in ticks) in various power states (Tick)
system.cpu.icache.tags.tagsInUse           251.574591                       # Average ticks per tags in use ((Tick/Count))
system.cpu.icache.tags.totalRefs               340993                       # Total number of references to valid blocks. (Count)
system.cpu.icache.tags.sampledRefs              28146                       # Sample count of references to valid blocks. (Count)
system.cpu.icache.tags.avgRefs              12.115150                       # Average number of references to valid blocks. ((Count/Count))
system.cpu.icache.tags.warmupTick               87500                       # The tick when the warmup percentage was hit. (Tick)
system.cpu.icache.tags.occupancies::cpu.inst   251.574591                       # Average occupied blocks per tick, per requestor ((Count/Tick))
system.cpu.icache.tags.avgOccs::cpu.inst     0.982713                       # Average percentage of cache occupancy ((Ratio/Tick))
system.cpu.icache.tags.avgOccs::total        0.982713                       # Average percentage of cache occupancy ((Ratio/Tick))
system.cpu.icache.tags.occupanciesTaskId::1024          256                       # Occupied blocks per task id (Count)
system.cpu.icache.tags.ageTaskId_1024::0           53                       # Occupied blocks per task id, per block age (Count)
system.cpu.icache.tags.ageTaskId_1024::2          199                       # Occupied blocks per task id, per block age (Count)
system.cpu.icache.tags.ageTaskId_1024::3            4                       # Occupied blocks per task id, per block age (Count)
system.cpu.icache.tags.ratioOccsTaskId::1024            1                       # Ratio of occupied blocks and all blocks, per task id (Ratio)
system.cpu.icache.tags.tagAccesses             710132                       # Number of tag accesses (Count)
system.cpu.icache.tags.dataAccesses            710132                       # Number of data accesses (Count)
system.cpu.icache.tags.power_state.pwrStateResidencyTicks::UNDEFINED   1034466000                       # Cumulative time (in ticks) in various power states (Tick)
system.cpu.mmu.alignFaults                          0                       # Number of MMU faults due to alignment restrictions (Count)
system.cpu.mmu.prefetchFaults                       0                       # Number of MMU faults due to prefetch (Count)
system.cpu.mmu.domainFaults                         0                       # Number of MMU faults due to domain restrictions (Count)
system.cpu.mmu.permsFaults                          0                       # Number of MMU faults due to permissions restrictions (Count)
system.cpu.mmu.dtb.readHits                         0                       # Read hits (Count)
system.cpu.mmu.dtb.readMisses                       0                       # Read misses (Count)
system.cpu.mmu.dtb.writeHits                        0                       # Write hits (Count)
system.cpu.mmu.dtb.writeMisses                      0                       # Write misses (Count)
system.cpu.mmu.dtb.inserts                          0                       # Number of times an entry is inserted into the TLB (Count)
system.cpu.mmu.dtb.flushTlb                         0                       # Number of times complete TLB was flushed (Count)
system.cpu.mmu.dtb.flushTlbMva                      0                       # Number of times TLB was flushed by MVA (Count)
system.cpu.mmu.dtb.flushTlbMvaAsid                  0                       # Number of times TLB was flushed by MVA & ASID (Count)
system.cpu.mmu.dtb.flushTlbAsid                     0                       # Number of times TLB was flushed by ASID (Count)
system.cpu.mmu.dtb.flushedEntries                   0                       # Number of entries that have been flushed from TLB (Count)
system.cpu.mmu.dtb.readAccesses                     0                       # Read accesses (Count)
system.cpu.mmu.dtb.writeAccesses                    0                       # Write accesses (Count)
system.cpu.mmu.dtb.hits                             0                       # Total TLB (inst and data) hits (Count)
system.cpu.mmu.dtb.misses                           0                       # Total TLB (inst and data) misses (Count)
system.cpu.mmu.dtb.accesses                         0                       # Total TLB (inst and data) accesses (Count)
system.cpu.mmu.dtb_walker.walks                     0                       # Table walker walks requested (Count)
system.cpu.mmu.dtb_walker.requestOrigin_Requested::Data            0                       # Table walker requests started/completed, data/inst (Count)
system.cpu.mmu.dtb_walker.requestOrigin_Requested::Inst            0                       # Table walker requests started/completed, data/inst (Count)
system.cpu.mmu.dtb_walker.requestOrigin_Requested::total            0                       # Table walker requests started/completed, data/inst (Count)
system.cpu.mmu.dtb_walker.requestOrigin_Completed::Data            0                       # Table walker requests started/completed, data/inst (Count)
system.cpu.mmu.dtb_walker.requestOrigin_Completed::Inst            0                       # Table walker requests started/completed, data/inst (Count)
system.cpu.mmu.dtb_walker.requestOrigin_Completed::total            0                       # Table walker requests started/completed, data/inst (Count)
system.cpu.mmu.dtb_walker.requestOrigin::total            0                       # Table walker requests started/completed, data/inst (Count)
system.cpu.mmu.dtb_walker.power_state.pwrStateResidencyTicks::UNDEFINED   1034466000                       # Cumulative time (in ticks) in various power states (Tick)
system.cpu.mmu.itb.instHits                         0                       # Inst hits (Count)
system.cpu.mmu.itb.instMisses                       0                       # Inst misses (Count)
system.cpu.mmu.itb.inserts                          0                       # Number of times an entry is inserted into the TLB (Count)
system.cpu.mmu.itb.flushTlb                         0                       # Number of times complete TLB was flushed (Count)
system.cpu.mmu.itb.flushTlbMva                      0                       # Number of times TLB was flushed by MVA (Count)
system.cpu.mmu.itb.flushTlbMvaAsid                  0                       # Number of times TLB was flushed by MVA & ASID (Count)
system.cpu.mmu.itb.flushTlbAsid                     0                       # Number of times TLB was flushed by ASID (Count)
system.cpu.mmu.itb.flushedEntries                   0                       # Number of entries that have been flushed from TLB (Count)
system.cpu.mmu.itb.instAccesses                     0                       # Inst accesses (Count)
system.cpu.mmu.itb.hits                             0                       # Total TLB (inst and data) hits (Count)
system.cpu.mmu.itb.misses                           0                       # Total TLB (inst and data) misses (Count)
system.cpu.mmu.itb.accesses                         0                       # Total TLB (inst and data) accesses (Count)
system.cpu.mmu.itb_walker.walks                     0                       # Table walker walks requested (Count)
system.cpu.mmu.itb_walker.requestOrigin_Requested::Data            0                       # Table walker requests started/completed, data/inst (Count)
system.cpu.mmu.itb_walker.requestOrigin_Requested::Inst            0                       # Table walker requests started/completed, data/inst (Count)
system.cpu.mmu.itb_walker.requestOrigin_Requested::total            0                       # Table walker requests started/completed, data/inst (Count)
system.cpu.mmu.itb_walker.requestOrigin_Completed::Data            0                       # Table walker requests started/completed, data/inst (Count)
system.cpu.mmu.itb_walker.requestOrigin_Completed::Inst            0                       # Table walker requests started/completed, data/inst (Count)
system.cpu.mmu.itb_walker.requestOrigin_Completed::total            0                       # Table walker requests started/completed, data/inst (Count)
system.cpu.mmu.itb_walker.requestOrigin::total            0                       # Table walker requests started/completed, data/inst (Count)
system.cpu.mmu.itb_walker.power_state.pwrStateResidencyTicks::UNDEFINED   1034466000                       # Cumulative time (in ticks) in various power states (Tick)
system.cpu.mmu.l2_shared.instHits                   0                       # Inst hits (Count)
system.cpu.mmu.l2_shared.instMisses                 0                       # Inst misses (Count)
system.cpu.mmu.l2_shared.inserts                    0                       # Number of times an entry is inserted into the TLB (Count)
system.cpu.mmu.l2_shared.flushTlb                   0                       # Number of times complete TLB was flushed (Count)
system.cpu.mmu.l2_shared.flushTlbMva                0                       # Number of times TLB was flushed by MVA (Count)
system.cpu.mmu.l2_shared.flushTlbMvaAsid            0                       # Number of times TLB was flushed by MVA & ASID (Count)
system.cpu.mmu.l2_shared.flushTlbAsid               0                       # Number of times TLB was flushed by ASID (Count)
system.cpu.mmu.l2_shared.flushedEntries             0                       # Number of entries that have been flushed from TLB (Count)
system.cpu.mmu.l2_shared.instAccesses               0                       # Inst accesses (Count)
system.cpu.mmu.l2_shared.hits                       0                       # Total TLB (inst and data) hits (Count)
system.cpu.mmu.l2_shared.misses                     0                       # Total TLB (inst and data) misses (Count)
system.cpu.mmu.l2_shared.accesses                   0                       # Total TLB (inst and data) accesses (Count)
system.cpu.mmu.stage2_dtb.readHits                  0                       # Read hits (Count)
system.cpu.mmu.stage2_dtb.readMisses                0                       # Read misses (Count)
system.cpu.mmu.stage2_dtb.writeHits                 0                       # Write hits (Count)
system.cpu.mmu.stage2_dtb.writeMisses               0                       # Write misses (Count)
system.cpu.mmu.stage2_dtb.inserts                   0                       # Number of times an entry is inserted into the TLB (Count)
system.cpu.mmu.stage2_dtb.flushTlb                  0                       # Number of times complete TLB was flushed (Count)
system.cpu.mmu.stage2_dtb.flushTlbMva               0                       # Number of times TLB was flushed by MVA (Count)
system.cpu.mmu.stage2_dtb.flushTlbMvaAsid            0                       # Number of times TLB was flushed by MVA & ASID (Count)
system.cpu.mmu.stage2_dtb.flushTlbAsid              0                       # Number of times TLB was flushed by ASID (Count)
system.cpu.mmu.stage2_dtb.flushedEntries            0                       # Number of entries that have been flushed from TLB (Count)
system.cpu.mmu.stage2_dtb.readAccesses              0                       # Read accesses (Count)
system.cpu.mmu.stage2_dtb.writeAccesses             0                       # Write accesses (Count)
system.cpu.mmu.stage2_dtb.hits                      0                       # Total TLB (inst and data) hits (Count)
system.cpu.mmu.stage2_dtb.misses                    0                       # Total TLB (inst and data) misses (Count)
system.cpu.mmu.stage2_dtb.accesses                  0                       # Total TLB (inst and data) accesses (Count)
system.cpu.mmu.stage2_dtb_walker.walks              0                       # Table walker walks requested (Count)
system.cpu.mmu.stage2_dtb_walker.requestOrigin_Requested::Data            0                       # Table walker requests started/completed, data/inst (Count)
system.cpu.mmu.stage2_dtb_walker.requestOrigin_Requested::Inst            0                       # Table walker requests started/completed, data/inst (Count)
system.cpu.mmu.stage2_dtb_walker.requestOrigin_Requested::total            0                       # Table walker requests started/completed, data/inst (Count)
system.cpu.mmu.stage2_dtb_walker.requestOrigin_Completed::Data            0                       # Table walker requests started/completed, data/inst (Count)
system.cpu.mmu.stage2_dtb_walker.requestOrigin_Completed::Inst            0                       # Table walker requests started/completed, data/inst (Count)
system.cpu.mmu.stage2_dtb_walker.requestOrigin_Completed::total            0                       # Table walker requests started/completed, data/inst (Count)
system.cpu.mmu.stage2_dtb_walker.requestOrigin::total            0                       # Table walker requests started/completed, data/inst (Count)
system.cpu.mmu.stage2_dtb_walker.power_state.pwrStateResidencyTicks::UNDEFINED   1034466000                       # Cumulative time (in ticks) in various power states (Tick)
system.cpu.mmu.stage2_itb.instHits                  0                       # Inst hits (Count)
system.cpu.mmu.stage2_itb.instMisses                0                       # Inst misses (Count)
system.cpu.mmu.stage2_itb.inserts                   0                       # Number of times an entry is inserted into the TLB (Count)
system.cpu.mmu.stage2_itb.flushTlb                  0                       # Number of times complete TLB was flushed (Count)
system.cpu.mmu.stage2_itb.flushTlbMva               0                       # Number of times TLB was flushed by MVA (Count)
system.cpu.mmu.stage2_itb.flushTlbMvaAsid            0                       # Number of times TLB was flushed by MVA & ASID (Count)
system.cpu.mmu.stage2_itb.flushTlbAsid              0                       # Number of times TLB was flushed by ASID (Count)
system.cpu.mmu.stage2_itb.flushedEntries            0                       # Number of entries that have been flushed from TLB (Count)
system.cpu.mmu.stage2_itb.instAccesses              0                       # Inst accesses (Count)
system.cpu.mmu.stage2_itb.hits                      0                       # Total TLB (inst and data) hits (Count)
system.cpu.mmu.stage2_itb.misses                    0                       # Total TLB (inst and data) misses (Count)
system.cpu.mmu.stage2_itb.accesses                  0                       # Total TLB (inst and data) accesses (Count)
system.cpu.mmu.stage2_itb_walker.walks              0                       # Table walker walks requested (Count)
system.cpu.mmu.stage2_itb_walker.requestOrigin_Requested::Data            0                       # Table walker requests started/completed, data/inst (Count)
system.cpu.mmu.stage2_itb_walker.requestOrigin_Requested::Inst            0                       # Table walker requests started/completed, data/inst (Count)
system.cpu.mmu.stage2_itb_walker.requestOrigin_Requested::total            0                       # Table walker requests started/completed, data/inst (Count)
system.cpu.mmu.stage2_itb_walker.requestOrigin_Completed::Data            0                       # Table walker requests started/completed, data/inst (Count)
system.cpu.mmu.stage2_itb_walker.requestOrigin_Completed::Inst            0                       # Table walker requests started/completed, data/inst (Count)
system.cpu.mmu.stage2_itb_walker.requestOrigin_Completed::total            0                       # Table walker requests started/completed, data/inst (Count)
system.cpu.mmu.stage2_itb_walker.requestOrigin::total            0                       # Table walker requests started/completed, data/inst (Count)
system.cpu.mmu.stage2_itb_walker.power_state.pwrStateResidencyTicks::UNDEFINED   1034466000                       # Cumulative time (in ticks) in various power states (Tick)
system.cpu.power_state.pwrStateResidencyTicks::ON   1034466000                       # Cumulative time (in ticks) in various power states (Tick)
system.cpu.thread_0.numInsts                  1000000                       # Number of Instructions committed (Count)
system.cpu.thread_0.numOps                    1111482                       # Number of Ops committed (Count)
system.cpu.thread_0.numMemRefs                      0                       # Number of Memory References (Count)
system.cpu.workload.numSyscalls                    10                       # Number of system calls (Count)
system.cpu_clk_domain.clock                       500                       # Clock period in ticks (Tick)
system.cpu_voltage_domain.voltage                   1                       # Voltage in Volts (Volt)
system.l2.demandHits::cpu.inst                  27290                       # number of demand (read+write) hits (Count)
system.l2.demandHits::cpu.data                      4                       # number of demand (read+write) hits (Count)
system.l2.demandHits::total                     27294                       # number of demand (read+write) hits (Count)
system.l2.overallHits::cpu.inst                 27290                       # number of overall hits (Count)
system.l2.overallHits::cpu.data                     4                       # number of overall hits (Count)
system.l2.overallHits::total                    27294                       # number of overall hits (Count)
system.l2.demandMisses::cpu.inst                  856                       # number of demand (read+write) misses (Count)
system.l2.demandMisses::cpu.data                  623                       # number of demand (read+write) misses (Count)
system.l2.demandMisses::total                    1479                       # number of demand (read+write) misses (Count)
system.l2.overallMisses::cpu.inst                 856                       # number of overall misses (Count)
system.l2.overallMisses::cpu.data                 623                       # number of overall misses (Count)
system.l2.overallMisses::total                   1479                       # number of overall misses (Count)
system.l2.demandMissLatency::cpu.inst        64763500                       # number of demand (read+write) miss ticks (Tick)
system.l2.demandMissLatency::cpu.data        51921000                       # number of demand (read+write) miss ticks (Tick)
system.l2.demandMissLatency::total          116684500                       # number of demand (read+write) miss ticks (Tick)
system.l2.overallMissLatency::cpu.inst       64763500                       # number of overall miss ticks (Tick)
system.l2.overallMissLatency::cpu.data       51921000                       # number of overall miss ticks (Tick)
system.l2.overallMissLatency::total         116684500                       # number of overall miss ticks (Tick)
system.l2.demandAccesses::cpu.inst              28146                       # number of demand (read+write) accesses (Count)
system.l2.demandAccesses::cpu.data                627                       # number of demand (read+write) accesses (Count)
system.l2.demandAccesses::total                 28773                       # number of demand (read+write) accesses (Count)
system.l2.overallAccesses::cpu.inst             28146                       # number of overall (read+write) accesses (Count)
system.l2.overallAccesses::cpu.data               627                       # number of overall (read+write) accesses (Count)
system.l2.overallAccesses::total                28773                       # number of overall (read+write) accesses (Count)
system.l2.demandMissRate::cpu.inst           0.030413                       # miss rate for demand accesses (Ratio)
system.l2.demandMissRate::cpu.data           0.993620                       # miss rate for demand accesses (Ratio)
system.l2.demandMissRate::total              0.051402                       # miss rate for demand accesses (Ratio)
system.l2.overallMissRate::cpu.inst          0.030413                       # miss rate for overall accesses (Ratio)
system.l2.overallMissRate::cpu.data          0.993620                       # miss rate for overall accesses (Ratio)
system.l2.overallMissRate::total             0.051402                       # miss rate for overall accesses (Ratio)
system.l2.demandAvgMissLatency::cpu.inst 75658.294393                       # average overall miss latency in ticks ((Tick/Count))
system.l2.demandAvgMissLatency::cpu.data 83340.288925                       # average overall miss latency in ticks ((Tick/Count))
system.l2.demandAvgMissLatency::total    78894.185260                       # average overall miss latency in ticks ((Tick/Count))
system.l2.overallAvgMissLatency::cpu.inst 75658.294393                       # average overall miss latency ((Tick/Count))
system.l2.overallAvgMissLatency::cpu.data 83340.288925                       # average overall miss latency ((Tick/Count))
system.l2.overallAvgMissLatency::total   78894.185260                       # average overall miss latency ((Tick/Count))
system.l2.blockedCycles::no_mshrs                   0                       # number of cycles access was blocked (Cycle)
system.l2.blockedCycles::no_targets                 0                       # number of cycles access was blocked (Cycle)
system.l2.blockedCauses::no_mshrs                   0                       # number of times access was blocked (Count)
system.l2.blockedCauses::no_targets                 0                       # number of times access was blocked (Count)
system.l2.avgBlocked::no_mshrs                    nan                       # average number of cycles each access was blocked ((Cycle/Count))
system.l2.avgBlocked::no_targets                  nan                       # average number of cycles each access was blocked ((Cycle/Count))
system.l2.demandMshrMisses::cpu.inst              856                       # number of demand (read+write) MSHR misses (Count)
system.l2.demandMshrMisses::cpu.data              623                       # number of demand (read+write) MSHR misses (Count)
system.l2.demandMshrMisses::total                1479                       # number of demand (read+write) MSHR misses (Count)
system.l2.overallMshrMisses::cpu.inst             856                       # number of overall MSHR misses (Count)
system.l2.overallMshrMisses::cpu.data             623                       # number of overall MSHR misses (Count)
system.l2.overallMshrMisses::total               1479                       # number of overall MSHR misses (Count)
system.l2.demandMshrMissLatency::cpu.inst     56203500                       # number of demand (read+write) MSHR miss ticks (Tick)
system.l2.demandMshrMissLatency::cpu.data     45691000                       # number of demand (read+write) MSHR miss ticks (Tick)
system.l2.demandMshrMissLatency::total      101894500                       # number of demand (read+write) MSHR miss ticks (Tick)
system.l2.overallMshrMissLatency::cpu.inst     56203500                       # number of overall MSHR miss ticks (Tick)
system.l2.overallMshrMissLatency::cpu.data     45691000                       # number of overall MSHR miss ticks (Tick)
system.l2.overallMshrMissLatency::total     101894500                       # number of overall MSHR miss ticks (Tick)
system.l2.demandMshrMissRate::cpu.inst       0.030413                       # mshr miss ratio for demand accesses (Ratio)
system.l2.demandMshrMissRate::cpu.data       0.993620                       # mshr miss ratio for demand accesses (Ratio)
system.l2.demandMshrMissRate::total          0.051402                       # mshr miss ratio for demand accesses (Ratio)
system.l2.overallMshrMissRate::cpu.inst      0.030413                       # mshr miss ratio for overall accesses (Ratio)
system.l2.overallMshrMissRate::cpu.data      0.993620                       # mshr miss ratio for overall accesses (Ratio)
system.l2.overallMshrMissRate::total         0.051402                       # mshr miss ratio for overall accesses (Ratio)
system.l2.demandAvgMshrMissLatency::cpu.inst 65658.294393                       # average overall mshr miss latency ((Tick/Count))
system.l2.demandAvgMshrMissLatency::cpu.data 73340.288925                       # average overall mshr miss latency ((Tick/Count))
system.l2.demandAvgMshrMissLatency::total 68894.185260                       # average overall mshr miss latency ((Tick/Count))
system.l2.overallAvgMshrMissLatency::cpu.inst 65658.294393                       # average overall mshr miss latency ((Tick/Count))
system.l2.overallAvgMshrMissLatency::cpu.data 73340.288925                       # average overall mshr miss latency ((Tick/Count))
system.l2.overallAvgMshrMissLatency::total 68894.185260                       # average overall mshr miss latency ((Tick/Count))
system.l2.replacements                              0                       # number of replacements (Count)
system.l2.InvalidateReq.misses::cpu.data            8                       # number of InvalidateReq misses (Count)
system.l2.InvalidateReq.misses::total               8                       # number of InvalidateReq misses (Count)
system.l2.InvalidateReq.accesses::cpu.data            8                       # number of InvalidateReq accesses(hits+misses) (Count)
system.l2.InvalidateReq.accesses::total             8                       # number of InvalidateReq accesses(hits+misses) (Count)
system.l2.InvalidateReq.missRate::cpu.data            1                       # miss rate for InvalidateReq accesses (Ratio)
system.l2.InvalidateReq.missRate::total             1                       # miss rate for InvalidateReq accesses (Ratio)
system.l2.InvalidateReq.mshrMisses::cpu.data            8                       # number of InvalidateReq MSHR misses (Count)
system.l2.InvalidateReq.mshrMisses::total            8                       # number of InvalidateReq MSHR misses (Count)
system.l2.InvalidateReq.mshrMissLatency::cpu.data       151000                       # number of InvalidateReq MSHR miss ticks (Tick)
system.l2.InvalidateReq.mshrMissLatency::total       151000                       # number of InvalidateReq MSHR miss ticks (Tick)
system.l2.InvalidateReq.mshrMissRate::cpu.data            1                       # mshr miss rate for InvalidateReq accesses (Ratio)
system.l2.InvalidateReq.mshrMissRate::total            1                       # mshr miss rate for InvalidateReq accesses (Ratio)
system.l2.InvalidateReq.avgMshrMissLatency::cpu.data        18875                       # average InvalidateReq mshr miss latency ((Tick/Count))
system.l2.InvalidateReq.avgMshrMissLatency::total        18875                       # average InvalidateReq mshr miss latency ((Tick/Count))
system.l2.ReadCleanReq.hits::cpu.inst           27290                       # number of ReadCleanReq hits (Count)
system.l2.ReadCleanReq.hits::total              27290                       # number of ReadCleanReq hits (Count)
system.l2.ReadCleanReq.misses::cpu.inst           856                       # number of ReadCleanReq misses (Count)
system.l2.ReadCleanReq.misses::total              856                       # number of ReadCleanReq misses (Count)
system.l2.ReadCleanReq.missLatency::cpu.inst     64763500                       # number of ReadCleanReq miss ticks (Tick)
system.l2.ReadCleanReq.missLatency::total     64763500                       # number of ReadCleanReq miss ticks (Tick)
system.l2.ReadCleanReq.accesses::cpu.inst        28146                       # number of ReadCleanReq accesses(hits+misses) (Count)
system.l2.ReadCleanReq.accesses::total          28146                       # number of ReadCleanReq accesses(hits+misses) (Count)
system.l2.ReadCleanReq.missRate::cpu.inst     0.030413                       # miss rate for ReadCleanReq accesses (Ratio)
system.l2.ReadCleanReq.missRate::total       0.030413                       # miss rate for ReadCleanReq accesses (Ratio)
system.l2.ReadCleanReq.avgMissLatency::cpu.inst 75658.294393                       # average ReadCleanReq miss latency ((Tick/Count))
system.l2.ReadCleanReq.avgMissLatency::total 75658.294393                       # average ReadCleanReq miss latency ((Tick/Count))
system.l2.ReadCleanReq.mshrMisses::cpu.inst          856                       # number of ReadCleanReq MSHR misses (Count)
system.l2.ReadCleanReq.mshrMisses::total          856                       # number of ReadCleanReq MSHR misses (Count)
system.l2.ReadCleanReq.mshrMissLatency::cpu.inst     56203500                       # number of ReadCleanReq MSHR miss ticks (Tick)
system.l2.ReadCleanReq.mshrMissLatency::total     56203500                       # number of ReadCleanReq MSHR miss ticks (Tick)
system.l2.ReadCleanReq.mshrMissRate::cpu.inst     0.030413                       # mshr miss rate for ReadCleanReq accesses (Ratio)
system.l2.ReadCleanReq.mshrMissRate::total     0.030413                       # mshr miss rate for ReadCleanReq accesses (Ratio)
system.l2.ReadCleanReq.avgMshrMissLatency::cpu.inst 65658.294393                       # average ReadCleanReq mshr miss latency ((Tick/Count))
system.l2.ReadCleanReq.avgMshrMissLatency::total 65658.294393                       # average ReadCleanReq mshr miss latency ((Tick/Count))
system.l2.ReadExReq.hits::cpu.data                  4                       # number of ReadExReq hits (Count)
system.l2.ReadExReq.hits::total                     4                       # number of ReadExReq hits (Count)
system.l2.ReadExReq.misses::cpu.data              386                       # number of ReadExReq misses (Count)
system.l2.ReadExReq.misses::total                 386                       # number of ReadExReq misses (Count)
system.l2.ReadExReq.missLatency::cpu.data     31858000                       # number of ReadExReq miss ticks (Tick)
system.l2.ReadExReq.missLatency::total       31858000                       # number of ReadExReq miss ticks (Tick)
system.l2.ReadExReq.accesses::cpu.data            390                       # number of ReadExReq accesses(hits+misses) (Count)
system.l2.ReadExReq.accesses::total               390                       # number of ReadExReq accesses(hits+misses) (Count)
system.l2.ReadExReq.missRate::cpu.data       0.989744                       # miss rate for ReadExReq accesses (Ratio)
system.l2.ReadExReq.missRate::total          0.989744                       # miss rate for ReadExReq accesses (Ratio)
system.l2.ReadExReq.avgMissLatency::cpu.data 82533.678756                       # average ReadExReq miss latency ((Tick/Count))
system.l2.ReadExReq.avgMissLatency::total 82533.678756                       # average ReadExReq miss latency ((Tick/Count))
system.l2.ReadExReq.mshrMisses::cpu.data          386                       # number of ReadExReq MSHR misses (Count)
system.l2.ReadExReq.mshrMisses::total             386                       # number of ReadExReq MSHR misses (Count)
system.l2.ReadExReq.mshrMissLatency::cpu.data     27998000                       # number of ReadExReq MSHR miss ticks (Tick)
system.l2.ReadExReq.mshrMissLatency::total     27998000                       # number of ReadExReq MSHR miss ticks (Tick)
system.l2.ReadExReq.mshrMissRate::cpu.data     0.989744                       # mshr miss rate for ReadExReq accesses (Ratio)
system.l2.ReadExReq.mshrMissRate::total      0.989744                       # mshr miss rate for ReadExReq accesses (Ratio)
system.l2.ReadExReq.avgMshrMissLatency::cpu.data 72533.678756                       # average ReadExReq mshr miss latency ((Tick/Count))
system.l2.ReadExReq.avgMshrMissLatency::total 72533.678756                       # average ReadExReq mshr miss latency ((Tick/Count))
system.l2.ReadSharedReq.misses::cpu.data          237                       # number of ReadSharedReq misses (Count)
system.l2.ReadSharedReq.misses::total             237                       # number of ReadSharedReq misses (Count)
system.l2.ReadSharedReq.missLatency::cpu.data     20063000                       # number of ReadSharedReq miss ticks (Tick)
system.l2.ReadSharedReq.missLatency::total     20063000                       # number of ReadSharedReq miss ticks (Tick)
system.l2.ReadSharedReq.accesses::cpu.data          237                       # number of ReadSharedReq accesses(hits+misses) (Count)
system.l2.ReadSharedReq.accesses::total           237                       # number of ReadSharedReq accesses(hits+misses) (Count)
system.l2.ReadSharedReq.missRate::cpu.data            1                       # miss rate for ReadSharedReq accesses (Ratio)
system.l2.ReadSharedReq.missRate::total             1                       # miss rate for ReadSharedReq accesses (Ratio)
system.l2.ReadSharedReq.avgMissLatency::cpu.data 84654.008439                       # average ReadSharedReq miss latency ((Tick/Count))
system.l2.ReadSharedReq.avgMissLatency::total 84654.008439                       # average ReadSharedReq miss latency ((Tick/Count))
system.l2.ReadSharedReq.mshrMisses::cpu.data          237                       # number of ReadSharedReq MSHR misses (Count)
system.l2.ReadSharedReq.mshrMisses::total          237                       # number of ReadSharedReq MSHR misses (Count)
system.l2.ReadSharedReq.mshrMissLatency::cpu.data     17693000                       # number of ReadSharedReq MSHR miss ticks (Tick)
system.l2.ReadSharedReq.mshrMissLatency::total     17693000                       # number of ReadSharedReq MSHR miss ticks (Tick)
system.l2.ReadSharedReq.mshrMissRate::cpu.data            1                       # mshr miss rate for ReadSharedReq accesses (Ratio)
system.l2.ReadSharedReq.mshrMissRate::total            1                       # mshr miss rate for ReadSharedReq accesses (Ratio)
system.l2.ReadSharedReq.avgMshrMissLatency::cpu.data 74654.008439                       # average ReadSharedReq mshr miss latency ((Tick/Count))
system.l2.ReadSharedReq.avgMshrMissLatency::total 74654.008439                       # average ReadSharedReq mshr miss latency ((Tick/Count))
system.l2.WritebackClean.hits::writebacks        27889                       # number of WritebackClean hits (Count)
system.l2.WritebackClean.hits::total            27889                       # number of WritebackClean hits (Count)
system.l2.WritebackClean.accesses::writebacks        27889                       # number of WritebackClean accesses(hits+misses) (Count)
system.l2.WritebackClean.accesses::total        27889                       # number of WritebackClean accesses(hits+misses) (Count)
system.l2.WritebackDirty.hits::writebacks           43                       # number of WritebackDirty hits (Count)
system.l2.WritebackDirty.hits::total               43                       # number of WritebackDirty hits (Count)
system.l2.WritebackDirty.accesses::writebacks           43                       # number of WritebackDirty accesses(hits+misses) (Count)
system.l2.WritebackDirty.accesses::total           43                       # number of WritebackDirty accesses(hits+misses) (Count)
system.l2.power_state.pwrStateResidencyTicks::UNDEFINED   1034466000                       # Cumulative time (in ticks) in various power states (Tick)
system.l2.tags.tagsInUse                  1250.764585                       # Average ticks per tags in use ((Tick/Count))
system.l2.tags.totalRefs                        56720                       # Total number of references to valid blocks. (Count)
system.l2.tags.sampledRefs                       1479                       # Sample count of references to valid blocks. (Count)
system.l2.tags.avgRefs                      38.350237                       # Average number of references to valid blocks. ((Count/Count))
system.l2.tags.warmupTick                       77000                       # The tick when the warmup percentage was hit. (Tick)
system.l2.tags.occupancies::cpu.inst       814.865291                       # Average occupied blocks per tick, per requestor ((Count/Tick))
system.l2.tags.occupancies::cpu.data       435.899294                       # Average occupied blocks per tick, per requestor ((Count/Tick))
system.l2.tags.avgOccs::cpu.inst             0.024868                       # Average percentage of cache occupancy ((Ratio/Tick))
system.l2.tags.avgOccs::cpu.data             0.013303                       # Average percentage of cache occupancy ((Ratio/Tick))
system.l2.tags.avgOccs::total                0.038170                       # Average percentage of cache occupancy ((Ratio/Tick))
system.l2.tags.occupanciesTaskId::1024           1479                       # Occupied blocks per task id (Count)
system.l2.tags.ageTaskId_1024::0                    3                       # Occupied blocks per task id, per block age (Count)
system.l2.tags.ageTaskId_1024::1                   27                       # Occupied blocks per task id, per block age (Count)
system.l2.tags.ageTaskId_1024::2                  971                       # Occupied blocks per task id, per block age (Count)
system.l2.tags.ageTaskId_1024::3                  478                       # Occupied blocks per task id, per block age (Count)
system.l2.tags.ratioOccsTaskId::1024         0.045135                       # Ratio of occupied blocks and all blocks, per task id (Ratio)
system.l2.tags.tagAccesses                     455303                       # Number of tag accesses (Count)
system.l2.tags.dataAccesses                    455303                       # Number of data accesses (Count)
system.l2.tags.power_state.pwrStateResidencyTicks::UNDEFINED   1034466000                       # Cumulative time (in ticks) in various power states (Tick)
system.mem_ctrls.avgPriority_cpu.inst::samples       856.00                       # Average QoS priority value for accepted requests (Count)
system.mem_ctrls.avgPriority_cpu.data::samples       623.00                       # Average QoS priority value for accepted requests (Count)
system.mem_ctrls.priorityMinLatency      0.000000018750                       # per QoS priority minimum request to response latency (Second)
system.mem_ctrls.priorityMaxLatency      0.000000564500                       # per QoS priority maximum request to response latency (Second)
system.mem_ctrls.numReadWriteTurnArounds            0                       # Number of turnarounds from READ to WRITE (Count)
system.mem_ctrls.numWriteReadTurnArounds            0                       # Number of turnarounds from WRITE to READ (Count)
system.mem_ctrls.numStayReadState                3221                       # Number of times bus staying in READ state (Count)
system.mem_ctrls.numStayWriteState                  0                       # Number of times bus staying in WRITE state (Count)
system.mem_ctrls.readReqs                        1479                       # Number of read requests accepted (Count)
system.mem_ctrls.writeReqs                          0                       # Number of write requests accepted (Count)
system.mem_ctrls.readBursts                      1479                       # Number of controller read bursts, including those serviced by the write queue (Count)
system.mem_ctrls.writeBursts                        0                       # Number of controller write bursts, including those merged in the write queue (Count)
system.mem_ctrls.servicedByWrQ                      0                       # Number of controller read bursts serviced by the write queue (Count)
system.mem_ctrls.mergedWrBursts                     0                       # Number of controller write bursts merged with an existing one (Count)
[...]
system.mem_ctrls.dram.perBankWrBursts::10            0                       # Per bank write bursts (Count)
system.mem_ctrls.dram.perBankWrBursts::11            0                       # Per bank write bursts (Count)
system.mem_ctrls.dram.perBankWrBursts::12            0                       # Per bank write bursts (Count)
system.mem_ctrls.dram.perBankWrBursts::13            0                       # Per bank write bursts (Count)
system.mem_ctrls.dram.perBankWrBursts::14            0                       # Per bank write bursts (Count)
system.mem_ctrls.dram.perBankWrBursts::15            0                       # Per bank write bursts (Count)
system.mem_ctrls.dram.totQLat                13451500                       # Total ticks spent queuing (Tick)
system.mem_ctrls.dram.totBusLat               7395000                       # Total ticks spent in databus transfers (Tick)
system.mem_ctrls.dram.totMemAccLat           41182750                       # Total ticks spent from burst creation until serviced by the DRAM (Tick)
system.mem_ctrls.dram.avgQLat                 9095.00                       # Average queueing delay per DRAM burst ((Tick/Count))
system.mem_ctrls.dram.avgBusLat               5000.00                       # Average bus latency per DRAM burst ((Tick/Count))
system.mem_ctrls.dram.avgMemAccLat           27845.00                       # Average memory access latency per DRAM burst ((Tick/Count))
system.mem_ctrls.dram.readRowHits                 939                       # Number of row buffer hits during reads (Count)
system.mem_ctrls.dram.writeRowHits                  0                       # Number of row buffer hits during writes (Count)
system.mem_ctrls.dram.readRowHitRate            63.49                       # Row buffer hit rate for reads (Ratio)
system.mem_ctrls.dram.writeRowHitRate             nan                       # Row buffer hit rate for writes (Ratio)
system.mem_ctrls.dram.bytesPerActivate::samples          539                       # Bytes accessed per row activation (Byte)
system.mem_ctrls.dram.bytesPerActivate::mean   175.495362                       # Bytes accessed per row activation (Byte)
system.mem_ctrls.dram.bytesPerActivate::gmean   109.883285                       # Bytes accessed per row activation (Byte)
system.mem_ctrls.dram.bytesPerActivate::stdev   227.852651                       # Bytes accessed per row activation (Byte)
system.mem_ctrls.dram.bytesPerActivate::0-127          343     63.64%     63.64% # Bytes accessed per row activation (Byte)
system.mem_ctrls.dram.bytesPerActivate::128-255           94     17.44%     81.08% # Bytes accessed per row activation (Byte)
system.mem_ctrls.dram.bytesPerActivate::256-383           26      4.82%     85.90% # Bytes accessed per row activation (Byte)
system.mem_ctrls.dram.bytesPerActivate::384-511           26      4.82%     90.72% # Bytes accessed per row activation (Byte)
system.mem_ctrls.dram.bytesPerActivate::512-639           12      2.23%     92.95% # Bytes accessed per row activation (Byte)
system.mem_ctrls.dram.bytesPerActivate::640-767            9      1.67%     94.62% # Bytes accessed per row activation (Byte)
system.mem_ctrls.dram.bytesPerActivate::768-895            6      1.11%     95.73% # Bytes accessed per row activation (Byte)
system.mem_ctrls.dram.bytesPerActivate::896-1023            6      1.11%     96.85% # Bytes accessed per row activation (Byte)
system.mem_ctrls.dram.bytesPerActivate::1024-1151           17      3.15%    100.00% # Bytes accessed per row activation (Byte)
system.mem_ctrls.dram.bytesPerActivate::total          539                       # Bytes accessed per row activation (Byte)
system.mem_ctrls.dram.bytesRead                 94656                       # Total bytes read (Byte)
system.mem_ctrls.dram.bytesWritten                  0                       # Total bytes written (Byte)
system.mem_ctrls.dram.avgRdBW               91.502282                       # Average DRAM read bandwidth in MiBytes/s ((Byte/Second))
system.mem_ctrls.dram.avgWrBW                       0                       # Average DRAM write bandwidth in MiBytes/s ((Byte/Second))
system.mem_ctrls.dram.peakBW                 12800.00                       # Theoretical peak bandwidth in MiByte/s ((Byte/Second))
system.mem_ctrls.dram.busUtil                    0.71                       # Data bus utilization in percentage (Ratio)
system.mem_ctrls.dram.busUtilRead                0.71                       # Data bus utilization in percentage for reads (Ratio)
system.mem_ctrls.dram.busUtilWrite               0.00                       # Data bus utilization in percentage for writes (Ratio)
system.mem_ctrls.dram.pageHitRate               63.49                       # Row buffer hit rate, read and write combined (Ratio)
system.mem_ctrls.dram.power_state.pwrStateResidencyTicks::UNDEFINED   1034466000                       # Cumulative time (in ticks) in various power states (Tick)
system.mem_ctrls.dram.rank0.actEnergy         1542240                       # Energy for activate commands per rank (pJ) (Joule)
system.mem_ctrls.dram.rank0.preEnergy          819720                       # Energy for precharge commands per rank (pJ) (Joule)
system.mem_ctrls.dram.rank0.readEnergy        6254640                       # Energy for read commands per rank (pJ) (Joule)
system.mem_ctrls.dram.rank0.writeEnergy             0                       # Energy for write commands per rank (pJ) (Joule)
system.mem_ctrls.dram.rank0.refreshEnergy 81132480.000000                       # Energy for refresh commands per rank (pJ) (Joule)
system.mem_ctrls.dram.rank0.actBackEnergy    197936490                       # Energy for active background per rank (pJ) (Joule)
system.mem_ctrls.dram.rank0.preBackEnergy    230551680                       # Energy for precharge background per rank (pJ) (Joule)
system.mem_ctrls.dram.rank0.actPowerDownEnergy            0                       # Energy for active power-down per rank (pJ) (Joule)
system.mem_ctrls.dram.rank0.prePowerDownEnergy            0                       # Energy for precharge power-down per rank (pJ) (Joule)
system.mem_ctrls.dram.rank0.selfRefreshEnergy            0                       # Energy for self refresh per rank (pJ) (Joule)
system.mem_ctrls.dram.rank0.totalEnergy     518237250                       # Total energy per rank (pJ) (Joule)
system.mem_ctrls.dram.rank0.averagePower   500.970791                       # Core power per rank (mW) (Watt)
system.mem_ctrls.dram.rank0.totalIdleTime            0                       # Total Idle time Per DRAM Rank (Tick)
system.mem_ctrls.dram.rank0.pwrStateTime::IDLE    597414750                       # Time in different power states (Tick)
system.mem_ctrls.dram.rank0.pwrStateTime::REF     34320000                       # Time in different power states (Tick)
system.mem_ctrls.dram.rank0.pwrStateTime::SREF            0                       # Time in different power states (Tick)
system.mem_ctrls.dram.rank0.pwrStateTime::PRE_PDN            0                       # Time in different power states (Tick)
system.mem_ctrls.dram.rank0.pwrStateTime::ACT    402731250                       # Time in different power states (Tick)
system.mem_ctrls.dram.rank0.pwrStateTime::ACT_PDN            0                       # Time in different power states (Tick)
system.mem_ctrls.dram.rank1.actEnergy         2313360                       # Energy for activate commands per rank (pJ) (Joule)
system.mem_ctrls.dram.rank1.preEnergy         1225785                       # Energy for precharge commands per rank (pJ) (Joule)
system.mem_ctrls.dram.rank1.readEnergy        4305420                       # Energy for read commands per rank (pJ) (Joule)
system.mem_ctrls.dram.rank1.writeEnergy             0                       # Energy for write commands per rank (pJ) (Joule)
system.mem_ctrls.dram.rank1.refreshEnergy 81132480.000000                       # Energy for refresh commands per rank (pJ) (Joule)
system.mem_ctrls.dram.rank1.actBackEnergy    336006450                       # Energy for active background per rank (pJ) (Joule)
system.mem_ctrls.dram.rank1.preBackEnergy    114282240                       # Energy for precharge background per rank (pJ) (Joule)
system.mem_ctrls.dram.rank1.actPowerDownEnergy            0                       # Energy for active power-down per rank (pJ) (Joule)
system.mem_ctrls.dram.rank1.prePowerDownEnergy            0                       # Energy for precharge power-down per rank (pJ) (Joule)
system.mem_ctrls.dram.rank1.selfRefreshEnergy            0                       # Energy for self refresh per rank (pJ) (Joule)
system.mem_ctrls.dram.rank1.totalEnergy     539265735                       # Total energy per rank (pJ) (Joule)
system.mem_ctrls.dram.rank1.averagePower   521.298656                       # Core power per rank (mW) (Watt)
system.mem_ctrls.dram.rank1.totalIdleTime            0                       # Total Idle time Per DRAM Rank (Tick)
system.mem_ctrls.dram.rank1.pwrStateTime::IDLE    293925000                       # Time in different power states (Tick)
system.mem_ctrls.dram.rank1.pwrStateTime::REF     34320000                       # Time in different power states (Tick)
system.mem_ctrls.dram.rank1.pwrStateTime::SREF            0                       # Time in different power states (Tick)
system.mem_ctrls.dram.rank1.pwrStateTime::PRE_PDN            0                       # Time in different power states (Tick)
system.mem_ctrls.dram.rank1.pwrStateTime::ACT    706221000                       # Time in different power states (Tick)
system.mem_ctrls.dram.rank1.pwrStateTime::ACT_PDN            0                       # Time in different power states (Tick)
system.mem_ctrls.power_state.pwrStateResidencyTicks::UNDEFINED   1034466000                       # Cumulative time (in ticks) in various power states (Tick)
system.membus.transDist::ReadResp                1093                       # Transaction distribution (Count)
system.membus.transDist::ReadExReq                386                       # Transaction distribution (Count)
system.membus.transDist::ReadExResp               386                       # Transaction distribution (Count)
system.membus.transDist::ReadSharedReq           1093                       # Transaction distribution (Count)
system.membus.transDist::InvalidateReq              8                       # Transaction distribution (Count)
system.membus.pktCount_system.l2.mem_side_port::system.mem_ctrls.port         2966                       # Packet count per connected requestor and responder (Count)
system.membus.pktCount::total                    2966                       # Packet count per connected requestor and responder (Count)
system.membus.pktSize_system.l2.mem_side_port::system.mem_ctrls.port        94656                       # Cumulative packet size per connected requestor and responder (Byte)
system.membus.pktSize::total                    94656                       # Cumulative packet size per connected requestor and responder (Byte)
system.membus.snoops                                0                       # Total snoops (Count)
system.membus.snoopTraffic                          0                       # Total snoop traffic (Byte)
system.membus.snoopFanout::samples               1487                       # Request fanout histogram (Count)
system.membus.snoopFanout::mean                     0                       # Request fanout histogram (Count)
system.membus.snoopFanout::stdev                    0                       # Request fanout histogram (Count)
system.membus.snoopFanout::underflows               0      0.00%      0.00% # Request fanout histogram (Count)
system.membus.snoopFanout::0                     1487    100.00%    100.00% # Request fanout histogram (Count)
system.membus.snoopFanout::1                        0      0.00%    100.00% # Request fanout histogram (Count)
system.membus.snoopFanout::overflows                0      0.00%    100.00% # Request fanout histogram (Count)
system.membus.snoopFanout::min_value                0                       # Request fanout histogram (Count)
system.membus.snoopFanout::max_value                0                       # Request fanout histogram (Count)
system.membus.snoopFanout::total                 1487                       # Request fanout histogram (Count)
system.membus.power_state.pwrStateResidencyTicks::UNDEFINED   1034466000                       # Cumulative time (in ticks) in various power states (Tick)
system.membus.reqLayer0.occupancy             1741500                       # Layer occupancy (ticks) (Tick)
system.membus.reqLayer0.utilization               0.0                       # Layer utilization (Ratio)
system.membus.respLayer1.occupancy            7922000                       # Layer occupancy (ticks) (Tick)
system.membus.respLayer1.utilization              0.0                       # Layer utilization (Ratio)
system.membus.snoop_filter.totRequests           1487                       # Total number of requests made to the snoop filter. (Count)
system.membus.snoop_filter.hitSingleRequests            0                       # Number of requests hitting in the snoop filter with a single holder of the requested data. (Count)
system.membus.snoop_filter.hitMultiRequests            0                       # Number of requests hitting in the snoop filter with multiple (>1) holders of the requested data. (Count)
system.membus.snoop_filter.totSnoops                0                       # Total number of snoops made to the snoop filter. (Count)
system.membus.snoop_filter.hitSingleSnoops            0                       # Number of snoops hitting in the snoop filter with a single holder of the requested data. (Count)
system.membus.snoop_filter.hitMultiSnoops            0                       # Number of snoops hitting in the snoop filter with multiple (>1) holders of the requested data. (Count)
system.tol2bus.transDist::ReadResp              28383                       # Transaction distribution (Count)
system.tol2bus.transDist::WritebackDirty           43                       # Transaction distribution (Count)
system.tol2bus.transDist::WritebackClean        27890                       # Transaction distribution (Count)
system.tol2bus.transDist::CleanEvict               15                       # Transaction distribution (Count)
system.tol2bus.transDist::ReadExReq               390                       # Transaction distribution (Count)
system.tol2bus.transDist::ReadExResp              390                       # Transaction distribution (Count)
system.tol2bus.transDist::ReadCleanReq          28146                       # Transaction distribution (Count)
system.tol2bus.transDist::ReadSharedReq           237                       # Transaction distribution (Count)
system.tol2bus.transDist::InvalidateReq             8                       # Transaction distribution (Count)
system.tol2bus.transDist::InvalidateResp            8                       # Transaction distribution (Count)
system.tol2bus.pktCount_system.cpu.icache.mem_side_port::system.l2.cpu_side_port        84182                       # Packet count per connected requestor and responder (Count)
system.tol2bus.pktCount_system.cpu.dcache.mem_side_port::system.l2.cpu_side_port         1328                       # Packet count per connected requestor and responder (Count)
system.tol2bus.pktCount::total                  85510                       # Packet count per connected requestor and responder (Count)
system.tol2bus.pktSize_system.cpu.icache.mem_side_port::system.l2.cpu_side_port      3586304                       # Cumulative packet size per connected requestor and responder (Byte)
system.tol2bus.pktSize_system.cpu.dcache.mem_side_port::system.l2.cpu_side_port        42880                       # Cumulative packet size per connected requestor and responder (Byte)
system.tol2bus.pktSize::total                 3629184                       # Cumulative packet size per connected requestor and responder (Byte)
system.tol2bus.snoops                               0                       # Total snoops (Count)
system.tol2bus.snoopTraffic                         0                       # Total snoop traffic (Byte)
system.tol2bus.snoopFanout::samples             28781                       # Request fanout histogram (Count)
system.tol2bus.snoopFanout::mean             0.000035                       # Request fanout histogram (Count)
system.tol2bus.snoopFanout::stdev            0.005895                       # Request fanout histogram (Count)
system.tol2bus.snoopFanout::underflows              0      0.00%      0.00% # Request fanout histogram (Count)
system.tol2bus.snoopFanout::0                   28780    100.00%    100.00% # Request fanout histogram (Count)
system.tol2bus.snoopFanout::1                       1      0.00%    100.00% # Request fanout histogram (Count)
system.tol2bus.snoopFanout::2                       0      0.00%    100.00% # Request fanout histogram (Count)
system.tol2bus.snoopFanout::overflows               0      0.00%    100.00% # Request fanout histogram (Count)
system.tol2bus.snoopFanout::min_value               0                       # Request fanout histogram (Count)
system.tol2bus.snoopFanout::max_value               1                       # Request fanout histogram (Count)
system.tol2bus.snoopFanout::total               28781                       # Request fanout histogram (Count)
system.tol2bus.power_state.pwrStateResidencyTicks::UNDEFINED   1034466000                       # Cumulative time (in ticks) in various power states (Tick)
system.tol2bus.reqLayer0.occupancy           56297500                       # Layer occupancy (ticks) (Tick)
system.tol2bus.reqLayer0.utilization              0.1                       # Layer utilization (Ratio)
system.tol2bus.respLayer0.occupancy          42219000                       # Layer occupancy (ticks) (Tick)
system.tol2bus.respLayer0.utilization             0.0                       # Layer utilization (Ratio)
system.tol2bus.respLayer1.occupancy            944500                       # Layer occupancy (ticks) (Tick)
system.tol2bus.respLayer1.utilization             0.0                       # Layer utilization (Ratio)
system.tol2bus.snoop_filter.totRequests         56729                       # Total number of requests made to the snoop filter. (Count)
system.tol2bus.snoop_filter.hitSingleRequests        27948                       # Number of requests hitting in the snoop filter with a single holder of the requested data. (Count)
system.tol2bus.snoop_filter.hitMultiRequests            1                       # Number of requests hitting in the snoop filter with multiple (>1) holders of the requested data. (Count)
system.tol2bus.snoop_filter.totSnoops               0                       # Total number of snoops made to the snoop filter. (Count)
system.tol2bus.snoop_filter.hitSingleSnoops            0                       # Number of snoops hitting in the snoop filter with a single holder of the requested data. (Count)
system.tol2bus.snoop_filter.hitMultiSnoops            0                       # Number of snoops hitting in the snoop filter with multiple (>1) holders of the requested data. (Count)
system.voltage_domain.voltage                       1                       # Voltage in Volts (Volt)
system.workload.inst.arm                            0                       # number of arm instructions executed (Count)
system.workload.inst.quiesce                        0                       # number of quiesce instructions executed (Count)
system.cpu.idleCycles                          607552                       # Total number of cycles that the object has spent stopped (Unspecified)
system.cpu.tickCycles                         1461380                       # Number of cycles that the object actually ticked (Unspecified)

---------- End Simulation Statistics   ----------
